<?xml version="1.0" encoding="utf-8"?>
<routes>
	<vType id="Car" accel="2.6" decel="4.5" sigma="0.5" length="5" maxSpeed="16.67"/>
	<flow id="198_593_0" type="Car" begin="0" end="1800" period="90">
		<route edges="4252 4260 3999 3229 521 518 3981 3959 1823 1824 987 261 262 2303 623 618 632 3566 3569 2429 2422 2129 2130 3937 3938"/>
	</flow>
	<flow id="1404_170_0" type="Car" begin="0" end="1800" period="90">
		<route edges="496 4022 4024 3491 3492 2093 2090 1321"/>
	</flow>
	<flow id="1397_467_0" type="Car" begin="0" end="1800" period="90">
		<route edges="3799 3789 3786 2047"/>
	</flow>
	<flow id="272_536_0" type="Car" begin="0" end="1800" period="90">
		<route edges="108 263 260 986 2780 2497 2494 3015 2469 2466 2732 3068 1731"/>
	</flow>
	<flow id="1366_1489_0" type="Car" begin="0" end="1800" period="90">
		<route edges="3797 3787 105 108 263 260 990 2134 1413 1410 1422 3271 3274 2975 2965 2963 1911 1906 1916 1051"/>
	</flow>
	<flow id="629_600_0" type="Car" begin="0" end="1800" period="90">
		<route edges="985 980 2950 3307 2957 1131 65 62 2569 2570 3713 3710 3299 1891 1892 2753 2750 2757"/>
	</flow>
	<flow id="1332_409_0" type="Car" begin="0" end="1800" period="90">
		<route edges="12 649 650 980 2950 3307 2957 1131 65 68 74 267 268 274 278 2172 923 920 2041 2042 4370 4281 3931 3924 1755 1758 2420 4223 2851 2852 5 6 2858"/>
	</flow>
	<flow id="593_480_0" type="Car" begin="0" end="1800" period="90">
		<route edges="3939 3936 2131 2132 3311 2957 1131 65 66 283 286 606 3577 3572 3886 1761"/>
	</flow>
	<flow id="361_1421_0" type="Car" begin="0" end="1800" period="90">
		<route edges="2617 2459 2460 2621 2618 1593 1594 2231 2232 1765 961 964 2755 2756 2751 2752 1893 1890 3298 3711 3712 2571 1691 71 72 284 290 3548 3888 3537 3532 3559 615 610 3555 627"/>
	</flow>
	<flow id="362_898_0" type="Car" begin="0" end="1800" period="90">
		<route edges="2618 1593 1596 1315 1310 1341 1342 1356 2395 2392 2406 4374 21 14 2908"/>
	</flow>
	<flow id="377_386_0" type="Car" begin="0" end="1800" period="90">
		<route edges="1770 3682 3691 2333 2336 1165 1166 183 180 2402 2405"/>
	</flow>
	<flow id="154_1338_0" type="Car" begin="0" end="1800" period="90">
		<route edges="2227 2222 1593 1594 2231 2232 1765 961 964 2755 2756 2751 2752 1893 1890 3298 3711 3712 2571 2568 63"/>
	</flow>
	<flow id="501_1317_0" type="Car" begin="0" end="1800" period="90">
		<route edges="1632 1591 1594 2889 2886 3681 3684"/>
	</flow>
	<flow id="637_1333_0" type="Car" begin="0" end="1800" period="90">
		<route edges="1629 1632 2823 2820 2836 2815 1367 1364 4374 21"/>
	</flow>
	<flow id="1361_561_0" type="Car" begin="0" end="1800" period="90">
		<route edges="221 218 1629 1632 1591 1594 2231 2232 1765 961 964 2755 2756 2751 2752 1893 1890 3298 3711 3712 4194 3707 3057 3054 1369 1370 4181 2911 2277 2274 2657 2660 2674 3919 3916 3927 3924 1755 1758 2418 2065 2068 2061 2057 2054 2071"/>
	</flow>
	<flow id="533_807_0" type="Car" begin="0" end="1800" period="90">
		<route edges="1714 839 836 2032 2038 3017 3014 3278 2971 2972 3429 2475 1941 1535 1532 1942 1933 1934 3344 3359 3356 3397 3392 3485 3481 3471 2829 2830 3895 543 540 1437 605 608 2539 317 318 2481 2482 25 26 4323 1177 1178"/>
	</flow>
	<flow id="1444_1122_0" type="Car" begin="0" end="1800" period="90">
		<route edges="760 2596 2037 2038 3017 3014 3278 2971 2972 3429 2475 1941 1535 1532 1942 1933 1934 3346 2983 2980 977 972 447 442 1145 1139 1140 501 502"/>
	</flow>
	<flow id="162_1396_0" type="Car" begin="0" end="1800" period="90">
		<route edges="3963 1923 1920 1881 1878 3286 3125 1805 1802 1549 1552 3356 3483 3443 3127 1147 1148 3440 3444 1843 1844 1846 103 96 3089 3090 1757 1754 3925 3926 3917 3914 3922 439"/>
	</flow>
	<flow id="163_700_0" type="Car" begin="0" end="1800" period="90">
		<route edges="3965 3966 3981 3959 1823 1824 987 261 262 2303 623 616 3554 611 614 3558 3533 545 548 3547 3539 3540"/>
	</flow>
	<flow id="173_438_0" type="Car" begin="0" end="1800" period="90">
		<route edges="1354 1333 1330 3977 989 261 262 2303 623 618 636"/>
	</flow>
	<flow id="177_296_0" type="Car" begin="0" end="1800" period="90">
		<route edges="3973 3469 3466 3017 3014 3278 2971 2972 3429 1545 1542 3049 3050 1295 1298 3735 3732 1119 1114 2188"/>
	</flow>
	<flow id="178_1365_0" type="Car" begin="0" end="1800" period="90">
		<route edges="2296 3997 3998 4261 4045 4015 249 244 366 257"/>
	</flow>
	<flow id="352_1397_0" type="Car" begin="0" end="1800" period="90">
		<route edges="1411 1412 2135 991 261 262 109 104 3788 3798"/>
	</flow>
	<flow id="820_1478_0" type="Car" begin="0" end="1800" period="90">
		<route edges="3257 2721 1883 1878 3286 3125 1805 1802 1549 1552 3356 3371 2979 2980 977"/>
	</flow>
	<flow id="823_112_0" type="Car" begin="0" end="1800" period="90">
		<route edges="3273 3270 3716 3263 3257 2721 1883 1878 3286 3125 1805 1802 1549 1552 3356 3483 3443 3127 1147 1148 3440 3444 111 112 335 336 3156 3333 3334 2521 2081 2082 1587 1582 1581 1576 3740 2077 883 884 1851 1239"/>
	</flow>
	<flow id="998_1456_0" type="Car" begin="0" end="1800" period="90">
		<route edges="1839 1836 2035 837 838 835"/>
	</flow>
	<flow id="1056_1312_0" type="Car" begin="0" end="1800" period="90">
		<route edges="3017 3014 2495 2496 2781 987 261 262 109 104 3788 3800"/>
	</flow>
	<flow id="1299_1077_0" type="Car" begin="0" end="1800" period="90">
		<route edges="1419 1415 1412 2135 991 988 3976 3993 1339 1334 57 58 1106 2091 2092 3493 3490 4025"/>
	</flow>
	<flow id="239_448_0" type="Car" begin="0" end="1800" period="90">
		<route edges="1409 1403 1400 1404 991 261 262 109 104 3788 3800 4410"/>
	</flow>
	<flow id="346_720_0" type="Car" begin="0" end="1800" period="90">
		<route edges="563 564 2713 2714 1881 1878 3286 3125 1805 1802 1549 1552 3356 3483 3443 3127 1147 1148 3440 3444 1843 1844 1846 103 96 3089 3090 1757 1754 3925 3926 3917 3914 1453 1445 1446 3763 2873"/>
	</flow>
	<flow id="749_278_0" type="Car" begin="0" end="1800" period="90">
		<route edges="3000 2997 2994 1879 1882 2720 3256 3262 3717 3271 3274 2975 2965 2963 1911 1906"/>
	</flow>
	<flow id="1395_849_0" type="Car" begin="0" end="1800" period="90">
		<route edges="430 3205 3021 3022 4201 3411 3407 3401 3402 2611 1551 1539 1503 1504"/>
	</flow>
	<flow id="231_1358_0" type="Car" begin="0" end="1800" period="90">
		<route edges="1957 1960 1986 3564 3569 2429 2422 199"/>
	</flow>
	<flow id="920_1149_0" type="Car" begin="0" end="1800" period="90">
		<route edges="611 614 3558 3533 3536 4209 531 536 4144 4166 4159 4157 2793 2788 3582 3592 4359 4207"/>
	</flow>
	<flow id="208_869_0" type="Car" begin="0" end="1800" period="90">
		<route edges="577 570 3569 2345 547 548 3893 3890 3575 1983 1984 2799 1473 1468 3582 3592 2667 2662 2670 4282 4284 4267 1755 1758 2418 3331 3334 3421"/>
	</flow>
	<flow id="374_755_0" type="Car" begin="0" end="1800" period="90">
		<route edges="4179 4075 1529 551 548 3893 3890 3894 2831 2828 3470 3480 3484 3349 3350 3434 3037"/>
	</flow>
	<flow id="470_1149_0" type="Car" begin="0" end="1800" period="90">
		<route edges="2428 2345 547 548 3893 3890 3575 1983 1984 2799 1473 1468 3582 3592 4359 4207"/>
	</flow>
	<flow id="502_273_0" type="Car" begin="0" end="1800" period="90">
		<route edges="4177 555 205 202 1057 1058 3253 13 8"/>
	</flow>
	<flow id="839_932_0" type="Car" begin="0" end="1800" period="90">
		<route edges="2957 1131 65 68 70 1692 4301 4298 3709 2481 2482 25 26 4323 4320 1707 1704 947 39 44 2693 2690 411 412 3520 3570 3619 3615"/>
	</flow>
	<flow id="91_272_0" type="Car" begin="0" end="1800" period="90">
		<route edges="1433 1430 1129 65 66 656 3538 3546 549 544 3532 3559 615 610 3555 617 622 107"/>
	</flow>
	<flow id="241_289_0" type="Car" begin="0" end="1800" period="90">
		<route edges="2331 1701 1702 581 578 1161 1158 2804 2816 4397 4355 4350"/>
	</flow>
	<flow id="439_562_0" type="Car" begin="0" end="1800" period="90">
		<route edges="3715 3712 4194 3707 3057 3054 1369 1370 4181 2911 2277 2274 2657 2660 2674 3919 3916 3927 3924 1755 1758 2418 2065 2068 2061 2057 2054 1581 1576 3740 2077"/>
	</flow>
	<flow id="379_1090_0" type="Car" begin="0" end="1800" period="90">
		<route edges="1328 2815 2810 1671 1668 2328 1601 1602"/>
	</flow>
	<flow id="836_513_0" type="Car" begin="0" end="1800" period="90">
		<route edges="3302 3297 3298 3711 3712 2571 1691 71 72 284 290 3548 3888 3537 3532 3559 615 610 3555 617 622 2302 263 260 986 1825 1822 3958 3980 3805 2141 2136"/>
	</flow>
	<flow id="1326_216_0" type="Car" begin="0" end="1800" period="90">
		<route edges="21 14 2908 23 24 2483 2480 319 316 2538 609 604 1436 541 542 3891 3888 235 232 4128"/>
	</flow>
	<flow id="1089_898_0" type="Car" begin="0" end="1800" period="90">
		<route edges="2329 1669 1151 1152 3499 3500 19 14 2908"/>
	</flow>
	<flow id="185_1450_0" type="Car" begin="0" end="1800" period="90">
		<route edges="2733 2467 2468 3014 3278 3269 3266 3273 3270 3716 3263 3257 3255 2713 1659 1654 3207 799 795"/>
	</flow>
	<flow id="609_1330_0" type="Car" begin="0" end="1800" period="90">
		<route edges="1027 1024 4294 4293 4290 1275 1272 1645 1646 2771 407 408 3050 1295 1298 3735 3732 1119 1114 2186 3878"/>
	</flow>
	<flow id="1485_749_0" type="Car" begin="0" end="1800" period="90">
		<route edges="1024 4294 4293 2015 2016 2491 2492 3014 3278 3269 3266 3273 3270 3716 3263 3257 2721 1883 1878 2995 2996 3001"/>
	</flow>
	<flow id="871_1168_0" type="Car" begin="0" end="1800" period="90">
		<route edges="1545 1542 3049 3052"/>
	</flow>
	<flow id="423_545_0" type="Car" begin="0" end="1800" period="90">
		<route edges="1802 1549 1552 3356 3483 3443 3127 1147 1148 3440 3444 1843 1844 1846 103 96 3089 3090 1757 1754 3925 3926 1997 1998 2881 2878 2940 2923 2926 2273 2270 4047 1209 1210 1236 1244 1249 1246 1264 1293"/>
	</flow>
	<flow id="916_136_0" type="Car" begin="0" end="1800" period="90">
		<route edges="539 542 3894 2831 2828 3472 2625 2626 1125 1120 715 716 4121 2993 305 306 2554"/>
	</flow>
	<flow id="923_1205_0" type="Car" begin="0" end="1800" period="90">
		<route edges="3572 535 532 4130 2827 2828 3472 4314 4319 3459 3051 409 406 2770 1647 1644 1273 1274 4291"/>
	</flow>
	<flow id="1023_506_0" type="Car" begin="0" end="1800" period="90">
		<route edges="535 532 4130 2827 2828 3472 2625 2626 1125 1120 715 716 4151 3819 3817 3814 4160"/>
	</flow>
	<flow id="1116_983_0" type="Car" begin="0" end="1800" period="90">
		<route edges="4132 4134 4136 503 500 1141 1138 1148 3440 3444 111 112 335 338 3417 893 898 3422 3225 3222 3744 3746"/>
	</flow>
	<flow id="1178_664_0" type="Car" begin="0" end="1800" period="90">
		<route edges="923 920 2041 2042 4370 4281 3931 3924 1755 1758 2418 2065 2068 2061 2057 2054 1581 1576 3740 2077 883 884 1851 1239 1240 2191 1257"/>
	</flow>
	<flow id="1338_461_0" type="Car" begin="0" end="1800" period="90">
		<route edges="66 283 286 604 1436 541 542 3894 2831 2828 3470 3480 3484 3349 3350 3436 3455 3450 3729 3726 4203 3023 3020 3204 431 432 3208 781 782 3219 3216"/>
	</flow>
	<flow id="1410_671_0" type="Car" begin="0" end="1800" period="90">
		<route edges="542 3891 3892 549 550 1526 2431 557 205 202 1057 1060"/>
	</flow>
	<flow id="1411_446_0" type="Car" begin="0" end="1800" period="90">
		<route edges="548 3893 3890 3894 2831 2828 3472 4314 4319 3459 3051 409 404"/>
	</flow>
	<flow id="262_1158_0" type="Car" begin="0" end="1800" period="90">
		<route edges="1380 2339 281 275 269 264 3577 3574 3891 3892 549 550 1526 2431 557 205 202"/>
	</flow>
	<flow id="504_558_0" type="Car" begin="0" end="1800" period="90">
		<route edges="71 74 267 268 274 278 2172 923 920 2041 2042 4370 4281 3931 3924 1755 1758 2418 2065 2068 2061 2057 2054 1581 1576 3740 2077 883 884"/>
	</flow>
	<flow id="546_777_0" type="Car" begin="0" end="1800" period="90">
		<route edges="1952 1707 1704 947 948 4187 4185 3601 3602 2295 2279 2274 2253 2239 2242 2653 2654 2669 2666 3593 3587 2717 1931 1925 1928 3738 1143 1138 1144 443 444 4302 3135"/>
	</flow>
	<flow id="961_471_0" type="Car" begin="0" end="1800" period="90">
		<route edges="319 316 2538 609 604 1436 541 542 3891 3892 549 550 1526 2431"/>
	</flow>
	<flow id="1160_429_0" type="Car" begin="0" end="1800" period="90">
		<route edges="4216 4328 4323 1177 1178 1185 1186 1689 1684 3606 3637 3632 4100"/>
	</flow>
	<flow id="35_622_0" type="Car" begin="0" end="1800" period="90">
		<route edges="1190 1179 1174 947 944 4337 4333 4330 4334 1161 1156 1973 1974 4349 4346 2517 2514 2151 2007"/>
	</flow>
	<flow id="725_43_0" type="Car" begin="0" end="1800" period="90">
		<route edges="2906 15 20 4375 2407 2404 2403 181 182 1167 1162 2731"/>
	</flow>
	<flow id="1168_833_0" type="Car" begin="0" end="1800" period="90">
		<route edges="3053 409 406 2770 1647 1644 1051 1052 3293 3294"/>
	</flow>
	<flow id="1170_1408_0" type="Car" begin="0" end="1800" period="90">
		<route edges="4232 3665 3668 3806 3912 3473 2829 2826 4131 533 534 3573 3576 265 268 274 278 2170 2281 2282 4262 3243 527"/>
	</flow>
	<flow id="772_1373_0" type="Car" begin="0" end="1800" period="90">
		<route edges="91 88 4235 4238 4362 1519 1522 1617 1614 185 188 4218 4286 1195 1192 1200 1204 931 936 2500 297"/>
	</flow>
	<flow id="777_1472_0" type="Car" begin="0" end="1800" period="90">
		<route edges="3134 2845 2846 3168 185 188 4218 719 720 1197 1198 1202 1206 941"/>
	</flow>
	<flow id="893_771_0" type="Car" begin="0" end="1800" period="90">
		<route edges="1093 1090 2250 979 972 3116 3129 3130 3115"/>
	</flow>
	<flow id="1032_276_0" type="Car" begin="0" end="1800" period="90">
		<route edges="3807 3808 4319 3459 3051 409 406 2770 1647 1644 1917 1907"/>
	</flow>
	<flow id="486_1203_0" type="Car" begin="0" end="1800" period="90">
		<route edges="1141 1138 1144 443 444 4235 4238 4362 1519 1522 1617 1614 185 186 1127 1122 3675 3657 3658"/>
	</flow>
	<flow id="589_98_0" type="Car" begin="0" end="1800" period="90">
		<route edges="1301 1141 1138 1144 443 446 973 976 2981 2982 1443"/>
	</flow>
	<flow id="767_910_0" type="Car" begin="0" end="1800" period="90">
		<route edges="3100 3643 3111 1487 1488 1846 103 96 3089 3090 1757 1754 3925 3926 3917 3914 3922 3771 3768 4400 2817 2779 673 417 412 3520 3570 3619 3615 3612 3527"/>
	</flow>
	<flow id="779_1432_0" type="Car" begin="0" end="1800" period="90">
		<route edges="1145 1139 1142 3739 1929 1924 1930 2716 3586 3592 2667 2668 2655 2652 2243 2238 2252 2275 2278 2294 3603 3600 4184 4186 949 39 40"/>
	</flow>
	<flow id="943_482_0" type="Car" begin="0" end="1800" period="90">
		<route edges="3649 3650 4123 3107 3102 77 80 82 842 2829 2830 3895 3891 3892 549 550"/>
	</flow>
	<flow id="1122_1192_0" type="Car" begin="0" end="1800" period="90">
		<route edges="503 504 506 4170 3591 3592 2667 2662 2670 4282 4279 4277"/>
	</flow>
	<flow id="1405_1383_0" type="Car" begin="0" end="1800" period="90">
		<route edges="504 506 4170 3591 3592 2667 2662 2672 2649 1751 1752 2661 2658 4259 435 436 659 660 3772 4400 2817 2779 673 361"/>
	</flow>
	<flow id="1500_287_0" type="Car" begin="0" end="1800" period="90">
		<route edges="1138 1148 3440 3444 1843 1844 1846 103 96 3089 3090 1757 1754 3925 3926 3917 3914 3922 3771 3768 4353 2809 2775"/>
	</flow>
	<flow id="220_440_0" type="Car" begin="0" end="1800" period="90">
		<route edges="4149 4137 4135 4133 533 534 3573 3576 265 268 274 276"/>
	</flow>
	<flow id="224_702_0" type="Car" begin="0" end="1800" period="90">
		<route edges="4155 2793 2790 239 240 2798 1985 1980 2440 607 287 282 67 64 1128 3313 3316"/>
	</flow>
	<flow id="301_160_0" type="Car" begin="0" end="1800" period="90">
		<route edges="1606 2261 2258 2041 2042 4370 4281 3931 3924 1755 1758 2418 3331 3332 3157 337 117 118 1623 1624 2449 2444 2642 185 188 4218 719 716 4151 3819 3820 371 374 2371"/>
	</flow>
	<flow id="410_795_0" type="Car" begin="0" end="1800" period="90">
		<route edges="2242 4370 4281 3931 3924 1755 1758 2418 2065 2066 2522 3225 3222 3744 3199"/>
	</flow>
	<flow id="575_1272_0" type="Car" begin="0" end="1800" period="90">
		<route edges="2652 2243 2238 2252 2275 2278 2294 3603 3600 4184 4186 949 39 40 686 693 688"/>
	</flow>
	<flow id="577_1414_0" type="Car" begin="0" end="1800" period="90">
		<route edges="2666 3593 3583 1469 1472 2798 1985 1982 3574 3891 3892 549 546 2344 3568 571"/>
	</flow>
	<flow id="927_1283_0" type="Car" begin="0" end="1800" period="90">
		<route edges="3592 2667 2662 2672 2649 1751 1752 2661 2658 4259 435 436 659 660 3772 4353 4354"/>
	</flow>
	<flow id="1034_1356_0" type="Car" begin="0" end="1800" period="90">
		<route edges="3916 3927 3924 1755 1758 2418 3331 3332 3157 337 117 118 1623 1624 2449 2444 2642 185"/>
	</flow>
	<flow id="1036_51_0" type="Car" begin="0" end="1800" period="90">
		<route edges="3924 1755 1756 3091 3088 97 102 1847 1845 1842 3445 3165 3143 481 345 346 446 973 976 2981 2982 3347 1935 1932"/>
	</flow>
	<flow id="1180_589_0" type="Car" begin="0" end="1800" period="90">
		<route edges="2253 2239 2242 2653 2654 2669 2666 3593 3590 4171 507 505 500 1300"/>
	</flow>
	<flow id="1195_1472_0" type="Car" begin="0" end="1800" period="90">
		<route edges="4284 4267 1755 1758 2418 3331 3332 3157 337 117 118 1623 1624 2449 2444 2642 185 188 4218 719 720 1197 1198 1202 1206 941"/>
	</flow>
	<flow id="1263_1258_0" type="Car" begin="0" end="1800" period="90">
		<route edges="4281 3931 3926 1997 1998 2881 2878 2940"/>
	</flow>
	<flow id="1469_254_0" type="Car" begin="0" end="1800" period="90">
		<route edges="922 2173 279 275 269 266 75 69 64 1130 2956 3310 2133 2130 2631"/>
	</flow>
	<flow id="259_429_0" type="Car" begin="0" end="1800" period="90">
		<route edges="2282 4262 3243 527 528 2485 2486 25 26 4323 1177 1178 1185 1186 1689 1684 3606 3637 3632 4100"/>
	</flow>
	<flow id="299_635_0" type="Car" begin="0" end="1800" period="90">
		<route edges="2915 585 588 4186 949 39 42 175 176 2764 3529 1739 1742 3640 4407"/>
	</flow>
	<flow id="503_138_0" type="Car" begin="0" end="1800" period="90">
		<route edges="2218 4184 4186 949 39 42 175 176"/>
	</flow>
	<flow id="985_963_0" type="Car" begin="0" end="1800" period="90">
		<route edges="665 668 595 587 584 2912 525 528 2710 4299 4300 4195 3713"/>
	</flow>
	<flow id="988_574_0" type="Car" begin="0" end="1800" period="90">
		<route edges="437 434 4258 2659 2660 1753 1750"/>
	</flow>
	<flow id="1233_258_0" type="Car" begin="0" end="1800" period="90">
		<route edges="4187 4185 3601 3602 2295 2279"/>
	</flow>
	<flow id="1417_695_0" type="Car" begin="0" end="1800" period="90">
		<route edges="594 669 664 2803 1159 1160 4335 4331 3517 3505 3508 1285 1267 1268 709 705 703 696 3625 1133 1134 3527 513 514 1288"/>
	</flow>
	<flow id="906_990_0" type="Car" begin="0" end="1800" period="90">
		<route edges="2777 2778 2816 4401 3773"/>
	</flow>
	<flow id="343_206_0" type="Car" begin="0" end="1800" period="90">
		<route edges="3873 3874 3641 1889 1886 3377 3374 333 326 4064 3609 655 601 598 1278 2156 4066"/>
	</flow>
	<flow id="508_70_0" type="Car" begin="0" end="1800" period="90">
		<route edges="3943 1081 1082 4406 3641 3639 3636 3607 1685"/>
	</flow>
	<flow id="939_68_0" type="Car" begin="0" end="1800" period="90">
		<route edges="1743 1738 3528 2765 2766 4385 689 690 411 414 357 358"/>
	</flow>
	<flow id="1492_354_0" type="Car" begin="0" end="1800" period="90">
		<route edges="1074 1180 3377 3374 333 326 4064 3609 655 652 3522 2163"/>
	</flow>
	<flow id="267_1008_0" type="Car" begin="0" end="1800" period="90">
		<route edges="459 456 3869 2189 2186 3823 2369 2366 2562 3851 3848 3829 3832"/>
	</flow>
	<flow id="79_267_0" type="Car" begin="0" end="1800" period="90">
		<route edges="3289 3290 3732 1119 1116 457 458"/>
	</flow>
	<flow id="848_767_0" type="Car" begin="0" end="1800" period="90">
		<route edges="749 750 3816 3818 4150 717 718 4219 189 184 1615 1616 1523 1524 485 480 3142 3164 3441 3438 3099"/>
	</flow>
	<flow id="494_978_0" type="Car" begin="0" end="1800" period="90">
		<route edges="721 718 4219 189 184 2643 2445 2446 2451 2452 1563 127 128 132 893 898 3422 3225 3222 3742"/>
	</flow>
	<flow id="586_48_0" type="Car" begin="0" end="1800" period="90">
		<route edges="4287 4091 3653 3654 3675 3678 3808 4213 3047 2309 2306 1945 1533 1534"/>
	</flow>
	<flow id="947_787_0" type="Car" begin="0" end="1800" period="90">
		<route edges="3672 1125 1126 187 184 3169"/>
	</flow>
	<flow id="1471_759_0" type="Car" begin="0" end="1800" period="90">
		<route edges="930 1205 1201 1193 1194 4287 4091 3653 3654 3675 3678 3808 4319 3459 3051"/>
	</flow>
	<flow id="339_1094_0" type="Car" begin="0" end="1800" period="90">
		<route edges="2640 2644 2688 3170 969 970 3172 3176 2195 1721 1722 3952 2185 1259 1260"/>
	</flow>
	<flow id="369_725_0" type="Car" begin="0" end="1800" period="90">
		<route edges="103 96 3089 3090 1757 1754 3925 3926 3917 3914 3922 439 436 659 660 3774 3755 3756 3758 949 39 42 175 167 170"/>
	</flow>
	<flow id="791_150_0" type="Car" begin="0" end="1800" period="90">
		<route edges="3182 2523 2067 2064 2419 1759 1754 3925 3926 3917 3918 2675 2661 2656 2275 2276 2910 4180 1371 1368 3055 3056 3706 4195 3713 3710 3299 1891 1892 2753 2750 1799 1791"/>
	</flow>
	<flow id="1345_244_0" type="Car" begin="0" end="1800" period="90">
		<route edges="112 335 336 3156 3333 3330 2065 1775 1776"/>
	</flow>
	<flow id="257_1278_0" type="Car" begin="0" end="1800" period="90">
		<route edges="1998 2881 2878 2940 2923 2926 2273 2268"/>
	</flow>
	<flow id="306_315_0" type="Car" begin="0" end="1800" period="90">
		<route edges="1808 2885 2882 2935 2917 2918 2924 2942 869 870 1230 1255 1250 2529 2526"/>
	</flow>
	<flow id="713_214_0" type="Car" begin="0" end="1800" period="90">
		<route edges="7 4 2853 2850 4222 2421 1759 1754 4266 4285 4283 2671 2663 2666 3593 3583 1469 1472 2798 1985"/>
	</flow>
	<flow id="1163_1206_0" type="Car" begin="0" end="1800" period="90">
		<route edges="1781 1773 1774 2064 3331 3332 3157 337 117 120 3148 3143 481 345 346 446 973 976 2981 2982 3347 1935 1932 1943 1533 1534 1940 2474 3426 2967 2963 1911 1906 1916 1273 1274"/>
	</flow>
	<flow id="24_544_0" type="Car" begin="0" end="1800" period="90">
		<route edges="36 54 4346 2517 2514 4387 4047 1209 1210 1236 1244 1249 1246 1264 1293 1291"/>
	</flow>
	<flow id="289_919_0" type="Car" begin="0" end="1800" period="90">
		<route edges="4351 4352 3773 661 662 904 1854 397 398 2274 4244 1607 1604 2175 2180 2961 2439 1981 1982 3574 3891 3888 3537 3532"/>
	</flow>
	<flow id="315_973_0" type="Car" begin="0" end="1800" period="90">
		<route edges="2527 2528 1251 1254 1231 871 868 2943 2925 2922 2941 2879 2880 1999 1996 3927 3924 1755 1756 3091 3088 97 102 1847 1845 1842 3445 3165 3143 481 345 346 446 973 976 2981 2982"/>
	</flow>
	<flow id="1237_265_0" type="Car" begin="0" end="1800" period="90">
		<route edges="1973 1974 4349 4346 4392 2869 2870 2931 2928 2934 2938"/>
	</flow>
	<flow id="1243_932_0" type="Car" begin="0" end="1800" period="90">
		<route edges="4348 1975 1972 1157 1160 4335 4331 3517 3514 3518 2773 671 417 412 3520 3570 3619 3615"/>
	</flow>
	<flow id="1277_216_0" type="Car" begin="0" end="1800" period="90">
		<route edges="4387 2271 2272 2927 2922 2941 2879 2880 4206 4358 3593 3583 2789 2792 4156 4158 4167 4145 537 530 237 232 4128"/>
	</flow>
	<flow id="67_640_0" type="Car" begin="0" end="1800" period="90">
		<route edges="3214 359 356 415 410 691 688 193 196 4065 327 332 3375 3376 1887"/>
	</flow>
	<flow id="312_968_0" type="Car" begin="0" end="1800" period="90">
		<route edges="1896 413 416 672 2778 2816 4401 3769 3770 3923 3915 3916 3927 3924 1755 1756 3091 3088 97 102 1847 1845 1842 3445 3441 1149 1146 3126 3442 3482 3357 1553 1548 1803 1804 3124 3287 1879 1882 2720 3256 3262"/>
	</flow>
	<flow id="935_1109_0" type="Car" begin="0" end="1800" period="90">
		<route edges="3624 1875 1637 1634 355 360 672 2778 2816 4401 3773 661 662 904 1854 397 398 2274 2253 2239 2242 2653 2654 2840"/>
	</flow>
	<flow id="72_848_0" type="Car" begin="0" end="1800" period="90">
		<route edges="652 3522 2163 2160 2865 393 394 3521 413 416 672 2778 2816 4401 3769 3770 3923 3915 3916 3927 3924 1755 1758 2418 3331 3332 3157 337 117 118 1623 1624 2449 2444 2642 185 188 4218 719 716 4151 3819 3817 751 748"/>
	</flow>
	<flow id="356_1294_0" type="Car" begin="0" end="1800" period="90">
		<route edges="2166 653 654 3608 4065 327 332 3375 3376 1887 1888 3640"/>
	</flow>
	<flow id="357_304_0" type="Car" begin="0" end="1800" period="90">
		<route edges="2159 1279 599 600 654 3608 4065 327 332 3375 3376 1887 1888 3639 3634 2607 2602"/>
	</flow>
	<flow id="22_395_0" type="Car" begin="0" end="1800" period="90">
		<route edges="3859 2795 2796 3822 3878 4420"/>
	</flow>
	<flow id="1015_1374_0" type="Car" begin="0" end="1800" period="90">
		<route edges="2785 375 303"/>
	</flow>
	<flow id="1042_452_0" type="Car" begin="0" end="1800" period="90">
		<route edges="1723 1720 2194 3177 3174 3420 3335 3330 2419 1759 1754 3925 3926 3917 3918 2675 2661 2656 2275 2276 2910 4180 1371 1368 3055 3056 3706 4195 3713 3710 3299 3296 3303 2335 2332 1733 1736 1313 1314 2819 1681 1557"/>
	</flow>
	<flow id="250_22_0" type="Car" begin="0" end="1800" period="90">
		<route edges="1257 1258 311 312 2556 3828 3849 3850 3861 3858"/>
	</flow>
	<flow id="792_296_0" type="Car" begin="0" end="1800" period="90">
		<route edges="3186 3198 3745 3223 3224 3423 899 892 133 129 126 1562 2453 2450 2447 2444 2642 185 186 1127 1122 3675 3657 3658 1119 1114 2188"/>
	</flow>
	<flow id="1041_702_0" type="Car" begin="0" end="1800" period="90">
		<route edges="3177 3174 3420 3335 3330 2419 1759 1754 3925 3930 4280 4371 2043 2040 921 922 2173 279 275 269 266 75 69 64 1128 3313 3316"/>
	</flow>
	<flow id="109_276_0" type="Car" begin="0" end="1800" period="90">
		<route edges="1214 2076 3741 1577 1580 1583 1586 2083 2080 2520 3335 3332 3157 337 117 120 3148 3143 481 345 346 446 973 976 2981 2982 3347 1935 1932 1943 1533 1534 1940 2474 3426 2967 2963 1911"/>
	</flow>
	<flow id="705_948_0" type="Car" begin="0" end="1800" period="90">
		<route edges="1850 885 882 2076 3741 1577 1574 3750 3747 3745 3223 3224 3423 899 892 133 129 126 1562 2453 2450 2447 2444 2642 185 186 1127 1122 3675"/>
	</flow>
	<flow id="1466_1023_0" type="Car" begin="0" end="1800" period="90">
		<route edges="137 138 1577 1580 2055 2056 2060 2069 2064 2419 1759 1754 4266 4285 4283 2671 2663 2666 3593 3583 1469 1472 2798 3578 4190 4117 3885"/>
	</flow>
	<flow id="118_297_0" type="Car" begin="0" end="1800" period="90">
		<route edges="2743 2738 1217 1212 1262 1227 1228 1384 309 312 2556 3828 3849 3850 2563 2367 2368 3822"/>
	</flow>
	<flow id="453_489_0" type="Car" begin="0" end="1800" period="90">
		<route edges="1253 1254 1231 1232 2512 2516 4347 4348 1975 1972 1157 1160 4335 4331 3517 3505 3508 1285 1267 1268 709 705 703 698 928 681 678"/>
	</flow>
	<flow id="542_683_0" type="Car" begin="0" end="1800" period="90">
		<route edges="683 680 929 699 700 1634 355 360 672 2778 2816 4401 3769 3770 3923 3915 3916 3927 3924 1755 1756 3091 3088 97 102 1847 1845 1842 3445 3165 3143 481 345 346 446 973 978 2251 1091 1092 3486 4212 4319 3459 3051 409 406"/>
	</flow>
	<flow id="526_235_1" type="Car" begin="1" end="1800" period="90">
		<route edges="2094 61 56 1335 1338 3992 3977 989 261 262 2303 623 616 3554 611 614 2413 2416"/>
	</flow>
	<flow id="707_825_1" type="Car" begin="1" end="1800" period="90">
		<route edges="2316 805 810 2097 2098 2100 3493 803 787 790 771 768 3259 421 422 2996 3001 3006 3023 3018 3026 3033 3028 3034 3038 3044 3200 3103 3106 4122 3651 3648 3281"/>
	</flow>
	<flow id="441_929_1" type="Car" begin="1" end="1800" period="90">
		<route edges="3987 3984 4131 533 534 3573 3576 607 608 2539 317 318 2481 2482 25 26 4323 1177 1178 1185 1186 1689 1684"/>
	</flow>
	<flow id="442_946_1" type="Car" begin="1" end="1800" period="90">
		<route edges="4147 537 532 4130 2827 2828 3472 3913 3807 3669"/>
	</flow>
	<flow id="1451_186_1" type="Car" begin="1" end="1800" period="90">
		<route edges="798 3206 1655 1658 2712 3254 3256 3262 3717 3271 3272 3267 3268 3279 3015 2469 2466 2732 3066"/>
	</flow>
	<flow id="467_1381_1" type="Car" begin="1" end="1800" period="90">
		<route edges="2046 3787 105 106 623 616 3554 611 614 3558 3533 3536 4209 531 532 4132 4134 4136 503 500 1141 1138 1144 3145 341"/>
	</flow>
	<flow id="1033_918_1" type="Car" begin="1" end="1800" period="90">
		<route edges="3777 1059 1056 203 198 2423 2428 3568 3565 611 614"/>
	</flow>
	<flow id="1424_374_1" type="Car" begin="1" end="1800" period="90">
		<route edges="646 1056 203 204 554 4178"/>
	</flow>
	<flow id="595_390_1" type="Car" begin="1" end="1800" period="90">
		<route edges="4243 2633 2630 2131 2132 3311 2957 1131 65 62 2569 2570 3713 3710 3299 1891 1892 2753 2750 2757 2754 965 960 1764 2233"/>
	</flow>
	<flow id="834_659_1" type="Car" begin="1" end="1800" period="90">
		<route edges="2755 2756 2751 2752 1893 1890 3298 3711 3712 2571 1691 71 72 286 604 1436 541 542 3894 2831 2828 3472 2625 2626 1125 1120 4090 4286 1195 1192 1200"/>
	</flow>
	<flow id="360_841_1" type="Car" begin="1" end="1800" period="90">
		<route edges="2459 2460 2621 2618 1593 1594 2231 2232 1765 961 964 2755 2756"/>
	</flow>
	<flow id="424_83_1" type="Car" begin="1" end="1800" period="90">
		<route edges="1594 2231 2232 1765 961 964 2755 2756 2751 2752 1893 1890 3298 2235 2236 2326"/>
	</flow>
	<flow id="619_1479_1" type="Car" begin="1" end="1800" period="90">
		<route edges="2564 2617 2459 2460 2621 2618 1593 1594 2231 2232 1765 961 964 2755 2756 2751 2752 1893 1890 3298 3711 3712 2571 2568 63 64 1130 2956 3306 2951 981"/>
	</flow>
	<flow id="617_1100_1" type="Car" begin="1" end="1800" period="90">
		<route edges="2373 2359 259 260 986 2780 2497 2494 3015 2469 2466 2732 3066 3070 3080 2387 2388"/>
	</flow>
	<flow id="843_149_1" type="Car" begin="1" end="1800" period="90">
		<route edges="1713 1714 839 840 3069 3066 3070 3080 1275 1272 1645 1646 2771 407 408 3050 3458 4318 3809 3679 3674 3655 3652 715 716 4121 2993 305 306 2554 313 308 1385 1386"/>
	</flow>
	<flow id="40_193_1" type="Car" begin="1" end="1800" period="90">