<configuration>
    <input>
        <net-file value="../data/roadnet.net.xml"/>
        <route-files value="../data/flow.rou.xml"/>
    </input>
    <time>
        <begin value="0"/>
        <end value="3600"/>
    </time>
</configuration>